@<TRIPOS>MOLECULE
XEY
   42    45     1     0     0
SMALL
bcc


@<TRIPOS>ATOM
      1 C1           6.0620    -0.3700    25.9140 ca         1 XEY       0.021400
      2 C2           6.7750     0.1070    24.8270 ca         1 XEY      -0.107000
      3 C5           8.2370    -0.2760    22.8140 cc         1 XEY      -0.150400
      4 C6           7.4080    -2.1460    24.2970 ca         1 XEY      -0.107000
      5 C11          9.0630     0.8500    22.8750 cd         1 XEY      -0.014000
      6 C12          8.6680    -1.2510    19.1490 ca         1 XEY      -0.097700
      7 C13         10.6900     2.5310    21.8360 ca         1 XEY       0.011200
      8 C14          9.7410    -1.8770    18.5760 ca         1 XEY      -0.105000
      9 C15          9.6060    -2.5440    17.4050 ca         1 XEY      -0.238300
     10 C16          8.3810    -2.5780    16.7880 ca         1 XEY       0.400200
     11 C17          7.4240    -1.3050    18.4990 ca         1 XEY       0.432200
     12 C10          9.7730     1.3130    21.7120 cd         1 XEY      -0.161200
     13 C18         10.7600     3.5690    20.9020 ca         1 XEY      -0.018000
     14 C19         11.6370     4.6220    21.1050 ca         1 XEY      -0.088000
     15 C20         12.4450     4.6580    22.2200 ca         1 XEY      -0.134000
     16 C21         12.3890     3.6490    23.1500 ca         1 XEY      -0.103000
     17 C22         11.5190     2.5890    22.9640 ca         1 XEY      -0.131000
     18 C23          9.9070     3.6020    19.6330 cg         1 XEY       0.228800
     19 C3           6.0200    -1.7220    26.1980 ca         1 XEY      -0.116000
     20 C4           7.4570    -0.7880    24.0210 ca         1 XEY      -0.021800
     21 C7           6.6920    -2.6130    25.3850 ca         1 XEY       0.021400
     22 C8           8.1210    -0.9780    21.5220 c          1 XEY       0.701700
     23 C9           9.6660     0.6150    20.4680 cc         1 XEY       0.047600
     24 N1           8.8160    -0.5340    20.4000 n          1 XEY      -0.243200
     25 N2           7.3220    -1.9710    17.3390 nb         1 XEY      -0.651000
     26 N3           9.2840     3.6380    18.6900 n1         1 XEY      -0.358800
     27 O1           7.3200    -2.1020    21.4270 o          1 XEY      -0.611500
     28 CL1          5.2000     0.7750    26.9680 cl         1 XEY      -0.083900
     29 CL2          6.6290    -4.3580    25.7300 cl         1 XEY      -0.083900
     30 H            6.7980     1.1180    24.6200 ha         1 XEY       0.161000
     31 H1           7.9080    -2.8120    23.6880 ha         1 XEY       0.161000
     32 H2           9.1650     1.3570    23.7680 ha         1 XEY       0.152000
     33 H3          10.6620    -1.8410    19.0400 ha         1 XEY       0.143000
     34 H4          10.4160    -3.0220    16.9810 ha         1 XEY       0.149000
     35 H5           8.2750    -3.0760    15.8910 h4         1 XEY       0.029100
     36 H6           6.5990    -0.8390    18.9080 h4         1 XEY       0.053100
     37 H7          11.6850     5.3870    20.4140 ha         1 XEY       0.148000
     38 H8          13.0960     5.4470    22.3570 ha         1 XEY       0.144000
     39 H9          12.9940     3.6810    23.9850 ha         1 XEY       0.142000
     40 H10         11.4800     1.8320    23.6650 ha         1 XEY       0.145000
     41 H11          5.4890    -2.0640    27.0140 ha         1 XEY       0.162000
     42 H12         10.1900     0.9330    19.6380 h4         1 XEY       0.170000
@<TRIPOS>BOND
     1     1     2 ar  
     2     1    19 ar  
     3     1    28 1   
     4     2    20 ar  
     5     2    30 1   
     6     3     5 2   
     7     3    20 1   
     8     3    22 1   
     9     4    20 ar  
    10     4    21 ar  
    11     4    31 1   
    12     5    12 1   
    13     5    32 1   
    14     6     8 ar  
    15     6    11 ar  
    16     6    24 1   
    17     7    12 1   
    18     7    13 ar  
    19     7    17 ar  
    20     8     9 ar  
    21     8    33 1   
    22     9    10 ar  
    23     9    34 1   
    24    10    25 ar  
    25    10    35 1   
    26    11    25 ar  
    27    11    36 1   
    28    12    23 2   
    29    13    14 ar  
    30    13    18 1   
    31    14    15 ar  
    32    14    37 1   
    33    15    16 ar  
    34    15    38 1   
    35    16    17 ar  
    36    16    39 1   
    37    17    40 1   
    38    18    26 3   
    39    19    21 ar  
    40    19    41 1   
    41    21    29 1   
    42    22    24 1   
    43    22    27 2   
    44    23    24 1   
    45    23    42 1   
@<TRIPOS>SUBSTRUCTURE
     1 XEY         1 TEMP              0 ****  ****    0 ROOT
